Version 4
SHEET 1 880 680
WIRE 144 64 128 64
WIRE 144 112 144 64
FLAG 144 208 0
FLAG 96 192 EN
IOPIN 96 192 In
FLAG 144 64 ENBoost
IOPIN 144 64 Out
FLAG 48 64 Vbat
IOPIN 48 64 In
FLAG -256 144 0
FLAG -256 304 0
FLAG -256 64 Vbat
IOPIN -256 64 Out
FLAG -256 224 EN
IOPIN -256 224 Out
SYMBOL nmos 96 112 R0
SYMATTR InstName M1
SYMATTR Value SP8M24_N
SYMBOL res 144 48 R90
WINDOW 0 0 56 VBottom 2
WINDOW 3 32 56 VTop 2
SYMATTR InstName R1
SYMATTR Value 20k
SYMBOL voltage -256 48 R0
WINDOW 123 0 0 Left 0
WINDOW 39 0 0 Left 0
SYMATTR InstName V1
SYMATTR Value 3.7
SYMBOL voltage -256 208 R0
WINDOW 123 0 0 Left 0
WINDOW 39 0 0 Left 0
SYMATTR InstName V2
SYMATTR Value 0
TEXT -328 328 Left 2 !.tran 100m
